
**** 02/04/22 21:20:42 ****** PSpice 17.2.0 (March 2016) ****** ID# 0 ********

 ** Profile: "SCHEMATIC1-part2"  [ c:\cadence\ee100b winter 2022\lab1-pspicefiles\schematic1\part2.sim ] 


 ****     CIRCUIT DESCRIPTION


******************************************************************************




** Creating circuit file "part2.cir" 
** WARNING: THIS AUTOMATICALLY GENERATED FILE MAY BE OVERWRITTEN BY SUBSEQUENT SIMULATIONS

*Libraries: 
* Profile Libraries :
* Local Libraries :
.LIB "G:/My Drive/Winter 2022 Quarter/EE 100B/Labs/ee100_PSpiceLibs_CD4007/cd4007.lib" 
* From [PSPICE NETLIST] section of C:\SPB_Data\cdssetup\OrCAD_PSpice\17.2.0\PSpice.ini file:
.lib "nom.lib" 

*Analysis directives: 
.DC LIN V_V4 1 5 0.1 
.OPTIONS ADVCONV
.PROBE64 V(alias(*)) I(alias(*)) W(alias(*)) D(alias(*)) NOISE(alias(*)) 
.INC "..\SCHEMATIC1.net" 



**** INCLUDING SCHEMATIC1.net ****
* source LAB1
M_M1         N00198 N00198 0 0 nnMOS           
M_M2         N00206 N00198 0 0 nnMOS           
R_R1         N00198 N00186  10k  
V_V1         N00186 0 4.2Vdc
V_V2         N00206 0 5Vdc
V_V3         N01325 0 4Vdc
M_M3         N01357 N01357 0 0 nnMOS           
M_M4         N01651 N01357 0 0 nnMOS           
V_V4         N01373 0 5Vdc
R_R2         N01357 N01325  10k  
M_M5         N01373 N01912 N01651 0 nnMOS           
X_R3         0 N01912 N01325 POT PARAMS: SET=0.25 VALUE=1K

**** RESUMING part2.cir ****
.END

**** 02/04/22 21:20:42 ****** PSpice 17.2.0 (March 2016) ****** ID# 0 ********

 ** Profile: "SCHEMATIC1-part2"  [ c:\cadence\ee100b winter 2022\lab1-pspicefiles\schematic1\part2.sim ] 


 ****     MOSFET MODEL PARAMETERS


******************************************************************************




               nnMOS           
               NMOS            
       LEVEL    2            
           L  100.000000E-06 
           W  100.000000E-06 
         VTO    1.4          
          KP  600.000000E-06 
       GAMMA    0            
         PHI     .6          
      LAMBDA    5.000000E-03 
          IS   10.000000E-15 
          JS    0            
          PB     .8          
        PBSW     .8          
          CJ    0            
        CJSW    0            
        CGSO    0            
        CGDO    0            
        CGBO    0            
         TOX  100.000000E-09 
          XJ    0            
       UCRIT   10.000000E+03 
      DIOMOD    1            
         VFB    0            
        LETA    0            
        WETA    0            
          U0    0            
        TEMP    0            
         VDD    5            
       XPART    0            



          JOB CONCLUDED

**** 02/04/22 21:20:42 ****** PSpice 17.2.0 (March 2016) ****** ID# 0 ********

 ** Profile: "SCHEMATIC1-part2"  [ c:\cadence\ee100b winter 2022\lab1-pspicefiles\schematic1\part2.sim ] 


 ****     JOB STATISTICS SUMMARY


******************************************************************************



  License check-out time            =        1.97
  Total job time (using Solver 1)   =         .11
