
**** 02/04/22 23:39:33 ****** PSpice 17.2.0 (March 2016) ****** ID# 0 ********

 ** Profile: "SCHEMATIC1-part3"  [ c:\cadence\ee100b winter 2022\lab2-PSpiceFiles\SCHEMATIC1\part3.sim ] 


 ****     CIRCUIT DESCRIPTION


******************************************************************************




** Creating circuit file "part3.cir" 
** WARNING: THIS AUTOMATICALLY GENERATED FILE MAY BE OVERWRITTEN BY SUBSEQUENT SIMULATIONS

*Libraries: 
* Profile Libraries :
* Local Libraries :
.LIB "G:/My Drive/Winter 2022 Quarter/EE 100B/Labs/ee100_PSpiceLibs_CD4007/cd4007.lib" 
* From [PSPICE NETLIST] section of C:\SPB_Data\cdssetup\OrCAD_PSpice\17.2.0\PSpice.ini file:
.lib "nom.lib" 

*Analysis directives: 
.DC LIN VCM1, V6 0 5 0.1 
--------------$
ERROR(ORPSIM-16152): Invalid number: Error while converting token 'V6' to double value. Token can be a constant or expression
.OPTIONS ADVCONV
.PROBE64 V(alias(*)) I(alias(*)) W(alias(*)) D(alias(*)) NOISE(alias(*)) 
.INC "..\SCHEMATIC1.net" 



**** INCLUDING SCHEMATIC1.net ****
* source LAB2
R_R1         N14619 N14581  15.4k  
V_V1         N14581 0 5Vdc
V_V2         N14627 0 5Vdc
M_M2         N14627 N14619 0 0 nnMOS           
M_M1         N14619 N14619 0 0 nnMOS           
M_M3         N16275 N16364 0 0 nnMOS           
M_M4         N16295 N16345 0 0 nnMOS           
R_RL1         N16275 N16279  10k TC=0,0 
R_RL2         N16295 N16291  10k TC=0,0 
R_RP2         N16291 N16279  2k TC=0,0 
V_VCM         N16345 0 5Vdc
V_V4         0 N16279 5Vdc
V_VCM3         N16364 0 5Vdc
R_RL3         N21350 N21262  10k TC=0,0 
M_M6         N21356 N21444 N21474 0 nnMOS           
V_VCM1         N21444 0 5Vdc
R_RP3         N21304 N21262  1k TC=0,0 
M_M5         N21350 N21422 N21474 0 nnMOS           
R_RL4         N21356 N21304  10k TC=0,0 
V_VDD0         N22098 0 5Vdc
M_M7         N22152 N22152 0 0 nnMOS           
M_M8         N21474 N22152 0 0 nnMOS           
R_R2         N22152 N22098  15.4k  
V_V5         N21262 0 0Vdc
V_V6         N21422 0 5Vdc

**** RESUMING part3.cir ****
.END
