
**** 02/04/22 23:54:14 ****** PSpice 17.2.0 (March 2016) ****** ID# 0 ********

 ** Profile: "SCHEMATIC1-part3"  [ c:\cadence\ee100b winter 2022\lab2-PSpiceFiles\SCHEMATIC1\part3.sim ] 


 ****     CIRCUIT DESCRIPTION


******************************************************************************




** Creating circuit file "part3.cir" 
** WARNING: THIS AUTOMATICALLY GENERATED FILE MAY BE OVERWRITTEN BY SUBSEQUENT SIMULATIONS

*Libraries: 
* Profile Libraries :
* Local Libraries :
.LIB "G:/My Drive/Winter 2022 Quarter/EE 100B/Labs/ee100_PSpiceLibs_CD4007/cd4007.lib" 
* From [PSPICE NETLIST] section of C:\SPB_Data\cdssetup\OrCAD_PSpice\17.2.0\PSpice.ini file:
.lib "nom.lib" 

*Analysis directives: 
.DC LIN V_V6 0 5 0.1 
.OPTIONS ADVCONV
.PROBE64 V(alias(*)) I(alias(*)) W(alias(*)) D(alias(*)) NOISE(alias(*)) 
.INC "..\SCHEMATIC1.net" 



**** INCLUDING SCHEMATIC1.net ****
* source LAB2
R_R1         N14619 N14581  15.4k  
V_V1         N14581 0 5Vdc
V_V2         N14627 0 5Vdc
M_M2         N14627 N14619 0 0 nnMOS           
M_M1         N14619 N14619 0 0 nnMOS           
M_M3         N16275 N16364 0 0 nnMOS           
M_M4         N16295 N16345 0 0 nnMOS           
R_RL1         N16275 N16279  10k TC=0,0 
R_RL2         N16295 N16291  10k TC=0,0 
R_RP2         N16291 N16279  2k TC=0,0 
V_VCM         N16345 0 5Vdc
V_V4         0 N16279 5Vdc
V_VCM3         N16364 0 5Vdc
R_RL3         N21350 N21262  10k TC=0,0 
M_M6         N21356 N21422 N21474 0 nnMOS           
R_RP3         N21304 N21262  1k TC=0,0 
M_M5         N21350 N21422 N21474 0 nnMOS           
R_RL4         N21356 N21304  10k TC=0,0 
V_VDD0         N22098 0 5Vdc
M_M7         N22152 N22152 0 0 nnMOS           
M_M8         N21474 N22152 0 0 nnMOS           
R_R2         N22152 N22098  15.4k  
V_V5         N21262 0 5Vdc
V_V6         N21422 0 5Vdc

**** RESUMING part3.cir ****
.END

**** 02/04/22 23:54:14 ****** PSpice 17.2.0 (March 2016) ****** ID# 0 ********

 ** Profile: "SCHEMATIC1-part3"  [ c:\cadence\ee100b winter 2022\lab2-PSpiceFiles\SCHEMATIC1\part3.sim ] 


 ****     MOSFET MODEL PARAMETERS


******************************************************************************




               nnMOS           
               NMOS            
       LEVEL    2            
           L  100.000000E-06 
           W  100.000000E-06 
         VTO    1.1          
          KP  600.000000E-06 
       GAMMA    0            
         PHI     .6          
      LAMBDA    5.000000E-03 
          IS   10.000000E-15 
          JS    0            
          PB     .8          
        PBSW     .8          
          CJ    0            
        CJSW    0            
        CGSO    0            
        CGDO    0            
        CGBO    0            
         TOX  100.000000E-09 
          XJ    0            
       UCRIT   10.000000E+03 
      DIOMOD    1            
         VFB    0            
        LETA    0            
        WETA    0            
          U0    0            
        TEMP    0            
         VDD    5            
       XPART    0            



          JOB CONCLUDED

**** 02/04/22 23:54:14 ****** PSpice 17.2.0 (March 2016) ****** ID# 0 ********

 ** Profile: "SCHEMATIC1-part3"  [ c:\cadence\ee100b winter 2022\lab2-PSpiceFiles\SCHEMATIC1\part3.sim ] 


 ****     JOB STATISTICS SUMMARY


******************************************************************************



  License check-out time            =        2.28
  Total job time (using Solver 1)   =         .05
