
**** 02/05/22 19:10:06 ****** PSpice 17.2.0 (March 2016) ****** ID# 0 ********

 ** Profile: "SCHEMATIC1-part6"  [ C:\Cadence\EE100B Winter 2022\lab2_part2-PSpiceFiles\SCHEMATIC1\part6.sim ] 


 ****     CIRCUIT DESCRIPTION


******************************************************************************




** Creating circuit file "part6.cir" 
** WARNING: THIS AUTOMATICALLY GENERATED FILE MAY BE OVERWRITTEN BY SUBSEQUENT SIMULATIONS

*Libraries: 
* Profile Libraries :
* Local Libraries :
* From [PSPICE NETLIST] section of C:\SPB_Data\cdssetup\OrCAD_PSpice\17.2.0\PSpice.ini file:
.lib "nom.lib" 

*Analysis directives: 
.TRAN  0 100ms 0 
.OPTIONS ADVCONV
.PROBE64 V(alias(*)) I(alias(*)) W(alias(*)) D(alias(*)) NOISE(alias(*)) 
.INC "..\SCHEMATIC1.net" 



**** INCLUDING SCHEMATIC1.net ****
* source LAB2_PART2
R_R40         N37829 N37729  5k TC=0,0 
V_VDD1         N38181 0 4Vdc
M_M11         N38237 N38237 0 0 nnMOS           
R_R50         N37833 N37729  5k TC=0,0 
M_M9         N38063 N37829 N38173 0 nnMOS           
M_M12         N38173 N38237 0 0 nnMOS           
V_V6         N37829 N37833  
+SIN 0 0.1 100 0 0 0
M_M10         N38073 N37833 N38173 0 nnMOS           
V_VDD10         N37933 0 4Vdc
R_R30         N38237 N38181  15.4k  
V_VCM4         N37729 0 2.5Vdc
M_M13         N37933 N38063 N38063 N37933 ppMOS           
M_M14         N37933 N38063 N38073 N37933 ppMOS           

**** RESUMING part6.cir ****
.END

ERROR(ORPSIM-15113): Model nnMOS used by M_M11 is undefined

ERROR(ORPSIM-15113): Model nnMOS used by M_M9 is undefined

ERROR(ORPSIM-15113): Model nnMOS used by M_M12 is undefined

ERROR(ORPSIM-15113): Model nnMOS used by M_M10 is undefined

ERROR(ORPSIM-15113): Model ppMOS used by M_M13 is undefined

ERROR(ORPSIM-15113): Model ppMOS used by M_M14 is undefined
